/*--------------------------------*- C++ -*----------------------------------*\
| =========                 |                                                 |
| \\      /  F ield         | OpenFOAM: The Open Source CFD Toolbox           |
|  \\    /   O peration     | Version:  5.0                                   |
|   \\  /    A nd           | Web:      www.OpenFOAM.com                      |
|    \\/     M anipulation  |                                                 |
\*---------------------------------------------------------------------------*/
FoamFile
{
    version     2.0;
    format      ascii;
    class       dictionary;
    location    "system";
    object      controlDict;
}
// * * * * * * * * * * * * * * * * * * * * * * * * * * * * * * * * * * * * * //

application     rhoDarcyFoam;

startFrom       startTime;

startTime       0.0;

stopAt          endTime;

endTime         30000.0;

deltaT          0.01;

writeControl    adjustableRunTime;

writeInterval   500.0; 

purgeWrite      0;

writeFormat     ascii;

writePrecision  6;

writeCompression uncompressed;

timeFormat      general;

timePrecision   6;

adjustTimeStep  yes;

runTimeModifiable yes;

maxDeltaT	1;
maxCo           1;

// ************************************************************************* //
