/*--------------------------------*- C++ -*----------------------------------*\
  =========                 |
  \\      /  F ield         | OpenFOAM: The Open Source CFD Toolbox
   \\    /   O peration     | Website:  https://openfoam.org
    \\  /    A nd           | Version:  7
     \\/     M anipulation  |
\*---------------------------------------------------------------------------*/
FoamFile
{
    version     2.0;
    format      ascii;
    class       dictionary;
    object      extrudeMeshDict;
}
// * * * * * * * * * * * * * * * * * * * * * * * * * * * * * * * * * * * * * //

constructFrom    patch;
/*
patch:   patch of sourceCase
mesh:    patch of sourceCase, retaining original mesh
surface: surface geometry file
*/

sourceCase       "$FOAM_CASE";   // uses current case; can be a separate case
sourcePatches    (top);
// surface       "geometry.obj"; // constructFrom surface

// constructFrom patch: name of exposed "original" patch
exposedPatchName top;

flipNormals      false;

extrudeModel     linearDirection;
/*
linearNormal:    linear extrusion in point-normal direction
plane:           single-layer, point-normal extrusion with empty type (2D)
linearDirection: linear extrusion in specified direction
wedge:           single-layer, wedge extrusion with wedge type (axisymmetric)
sector:          sector extrusion about specified axis
linearRadial:    linear extrusion in radial direction
radial:          linear extrusion in radial direction with multiple radii
*/

thickness        80; // used by plane extrusion

nLayers          40;
expansionRatio   1.0;

// Merge front and back patches, typically for 360 deg wedge extrusion
mergeFaces       false;
mergeTol         0;

linearDirectionCoeffs
{
    direction    (0 0 1);
    thickness    80;
}

// * * * * * * * * * * * * * * * * * * * * * * * * * * * * * * * * * * * * * //
